1
    SWAT Dec 23 2016    VER 2016/Rev 664                                                                 0/ 0/   0      0: 0: 0

    General Input/Output section (file.cio):                                        
    2024/5/11 0:00:00 ARCGIS-SWAT interface AV                                      
                                                                                    
         Number of years in run:   14
         Area of watershed:     3338.408 km2
         Random number generator cycles: 0, use default numbers

         Initial random number seed: wet/dry day prob        748932582
         Initial random number seed: radiation              1948832765
         Initial random number seed: precipitation           857034417
         Initial random number seed: 0.5 hr rainfall          67377721
         Initial random number seed: wind speed              366304404
         Initial random number seed: irrigation             1094585182
         Initial random number seed: relative humidity      1767585417
         Initial random number seed: max temperature         608439319
         Initial random number seed: min temperature         592757081

         Precipitation data used in run:
          Multiple gages read for watershed
             Daily rainfall data used

         Temperature data used in run:
          Multiple gages read for watershed

         PET method used: Penman-Monteith

         Rainfall/Runoff/Routing Option:
          Daily rainfall data
          Runoff estimated with curve number method
          Daily stream routing
           Variable Storage routing method
           Channel dimensions remain constant
           Subbasin algae/CBOD loadings not modeled
           In-stream nutrient transformations modeled using QUAL2E equations

         Subbasin Input Summary:
          Sub Latitude  Elev(m) #HRUs Ponds Elevbnds Wetlnd
            1    24.79   579.61     9                   
            2    24.79   565.60    12                   
            3    24.79   598.65    13                   
            4    24.79   575.82    10                   
            5    24.79   665.12     2                   
            6    24.79   414.82     2                   
            7    24.79   417.91     5                   
            8    24.79   383.18     2                   
            9    24.79   476.19     4                   
           10    24.85   342.74    17                   
           11    24.85   299.03     8                   
           12    24.85   336.61     7                   
           13    24.85   369.65     7                   
           14    24.85   554.97     6                   
           15    24.85   564.30     8                   
           16    24.85   400.50     5                   
           17    24.85   266.69     7                   
           18    24.85   322.31     9                   
           19    24.85   543.66     1                   
           20    24.85   372.64    11                   
           21    24.85   440.77     6                   
           22    24.79   557.06     2                   
           23    24.79   531.95     2                   
           24    24.79   592.75     4                   
           25    24.79   511.59     4                   
           26    24.79   532.08     6                   
           27    24.79   508.20    11                   
           28    24.79   484.91     6                   
           29    24.79   425.13     8                   
           30    24.79   321.97     3                   
           31    24.79   487.01     7                   
           32    24.79   298.21     3                   
           33    24.79   477.72     8                   
           34    24.79   359.07     6                   
           35    24.75   434.91    16                   
           36    24.75   423.68    14                   
           37    24.75   361.10     2                   
           38    24.75   329.22     8                   
           39    24.75   523.86     8                   
           40    24.75   322.06     3                   
           41    24.75   278.26     5                   
           42    24.75   415.81     5                   
           43    24.75   364.64     7                   
           44    24.75   479.25     8                   
           45    24.34   467.90     7                   
           46    24.34   433.21     9                   
           47    24.31   321.32     6                   
           48    24.31   355.14     3                   
           49    24.25   364.83     7                   
           50    24.25   404.64    12                   
           51    24.25   420.25     7                   
           52    24.25   248.83     3                   
           53    24.25   322.59    17                   
           54    24.21   365.91     5                   
           55    24.21   332.57     4                   
           56    24.15   530.21     5                   
           57    24.15   519.46     3                   
           58    24.15   297.74     2                   
           59    24.15   260.42     9                   
           60    24.09   371.27     2                   
           61    24.09   284.76    17                   
           62    24.09   172.85     5                   
           63    24.09   351.16    10                   
           64    24.09   485.87     4                   
           65    24.09   438.04     2                   
           66    24.09   323.98     1                   
           67    24.09   258.78     3                   
           68    24.09   371.40    10                   
           69    24.09   319.07     8                   
           70    24.09   351.34     3                   
           71    24.09   468.81     3                   
           72    24.09   345.37     7                   
           73    24.09   471.70     4                   
           74    24.09   277.84     5                   
           75    24.09   252.46     4                   
           76    24.09   234.14     4                   
           77    24.14   333.72     4                   
           78    24.14   358.14     9                   
           79    24.14   255.20     8                   
           80    24.14   305.75     5                   
           81    24.14   350.11    11                   
           82    24.14   144.46     6                   
           83    24.14   315.56    10                   
           84    24.14   371.09     3                   
           85    24.11   366.97    10                   
           86    24.11   126.00    12                   
           87    24.11   105.78     8                   
           88    24.11   147.49     5                   

         HRU Input Summary Table 1:
          Sub   HRU   Area(ha) Slope SlpLgth(m) Ovrlnd_N CondII_CN TimeConc(hr) ESCO EPCO
            1      1     168.58 0.001     121.95    0.140     45.02      604.304 0.84 1.00
            1      2     751.54 0.008     121.95    0.140     41.76       76.588 0.84 1.00
            1      3     199.32 0.593       9.15    0.140     41.76        0.105 0.84 1.00
            1      4    1495.27 0.684       9.15    0.100     35.00        0.151 0.84 1.00
            1      5     722.42 0.379       9.15    0.100     35.00        0.141 0.84 1.00
            1      6    1297.18 0.011     121.95    0.100     35.00       29.192 0.84 1.00
            1      7     431.71 0.710       9.15    0.100     35.00        0.071 0.84 1.00
            1      8     206.71 0.377       9.15    0.100     35.00        0.088 0.84 1.00
            1      9     154.97 0.231      15.24    0.100     35.00        0.196 0.84 1.00
            2     10     950.18 0.380       9.15    0.100     35.00        0.090 0.84 1.00
            2     11     985.21 0.017     121.95    0.100     35.00       18.341 0.84 1.00
            2     12    1716.20 0.636       9.15    0.100     35.00        0.076 0.84 1.00
            2     13    2605.54 0.017     121.95    0.140     41.76       36.218 0.84 1.00
            2     14     866.21 0.227      15.24    0.140     41.76        0.385 0.84 1.00
            2     15    1653.13 0.726       9.15    0.100     35.00        0.068 0.84 1.00
            2     16     726.98 0.376       9.15    0.100     35.00        0.085 0.84 1.00
            2     17     514.24 0.234      15.24    0.100     35.00        0.189 0.84 1.00
            2     18    1793.68 0.022      91.46    0.100     35.00       10.818 0.84 1.00
            2     19    2892.46 0.680       9.15    0.100     35.00        0.095 0.84 1.00
            2     20    1811.70 0.376       9.15    0.100     35.00        0.114 0.84 1.00
            2     21    1288.59 0.235      15.24    0.100     35.00        0.218 0.84 1.00
            3     22       9.14 0.368       9.15    0.140     41.76        0.124 0.84 1.00
            3     23      14.00 0.220      15.24    0.140     41.76        0.346 0.84 1.00
            3     24      18.44 0.046      91.46    0.140     41.76        9.851 0.84 1.00
            3     25       9.68 0.685       9.15    0.140     41.76        0.067 0.84 1.00
            3     26      95.38 0.000     121.95    0.140     45.02     6036.043 0.84 1.00
            3     27     302.23 0.006     121.95    0.140     41.76      100.905 0.84 1.00
            3     28     427.50 0.770       9.15    0.100     35.00        0.050 0.84 1.00
            3     29     145.62 0.233      15.24    0.100     35.00        0.180 0.84 1.00
            3     30     198.53 0.377       9.15    0.100     35.00        0.075 0.84 1.00
            3     31     899.93 0.679       9.15    0.100     35.00        0.074 0.84 1.00
            3     32     637.88 0.015     121.95    0.100     35.00       20.831 0.84 1.00
            3     33     423.90 0.379       9.15    0.100     35.00        0.088 0.84 1.00
            3     34     792.29 0.747       9.15    0.100     35.00        0.066 0.84 1.00
            4     35     196.97 0.605       9.15    0.100     35.00        0.130 0.84 1.00
            4     36     112.44 0.378       9.15    0.100     35.00        0.130 0.84 1.00
            4     37      57.66 0.242      15.24    0.100     35.00        0.212 0.84 1.00
            4     38      29.55 0.386       9.15    0.100     35.00        0.081 0.84 1.00
            4     39     112.46 0.644       9.15    0.100     35.00        0.090 0.84 1.00
            4     40     279.48 0.380       9.15    0.100     35.00        0.213 0.84 1.00
            4     41     629.57 0.720       9.15    0.100     35.00        0.267 0.84 1.00
            4     42     669.63 0.694       9.15    0.100     35.00        0.285 0.84 1.00
            4     43    1042.59 0.009     121.95    0.100     35.00       38.942 0.84 1.00
            4     44     787.83 0.838       9.15    0.100     35.00        0.295 0.84 1.00
            5     45    1263.32 0.000     121.95    0.100     52.86     3084.084 0.86 1.00
            5     46    7394.58 0.896       9.15    0.100     52.86        0.248 0.86 1.00
            6     47    7301.51 0.920       9.15    0.100     52.86        0.187 0.86 1.00
            6     48    2726.01 0.904       9.15    0.100     52.86        0.094 0.86 1.00
            7     49     377.31 0.000     121.95    0.100     52.86     3080.517 0.86 1.00
            7     50      53.93 0.000     121.95    0.100     52.86     3079.491 0.86 1.00
            7     51     356.04 0.040      91.46    0.100     52.86        5.854 0.86 1.00
            7     52    1328.79 0.843       9.15    0.100     52.86        0.065 0.86 1.00
            7     53     392.11 0.846       9.15    0.100     52.86        0.040 0.86 1.00
            8     54    5699.14 0.864       9.15    0.100     52.86        0.162 0.86 1.00
            8     55    2720.16 0.847       9.15    0.100     52.86        0.099 0.86 1.00
            9     56     621.89 0.000     121.95    0.100     52.86     3081.189 0.86 1.00
            9     57     206.43 0.000     121.95    0.100     52.86     3079.997 0.86 1.00
            9     58    3531.23 0.884       9.15    0.100     52.86        0.113 0.86 1.00
            9     59     990.73 0.905       9.15    0.100     52.86        0.054 0.86 1.00
           10     60      27.70 0.552       9.15    0.100     52.86        0.050 0.86 1.00
           10     61      36.03 0.378       9.15    0.100     52.86        0.073 0.86 1.00
           10     62      19.08 0.239      15.24    0.100     52.86        0.171 0.86 1.00
           10     63      18.87 0.032      91.46    0.100     52.86        7.253 0.86 1.00
           10     64     103.75 0.537       9.15    0.100     35.00        0.070 0.86 1.00
           10     65     178.95 0.375       9.15    0.100     35.00        0.112 0.86 1.00
           10     66     116.18 0.238      15.24    0.100     35.00        0.209 0.86 1.00
           10     67      43.31 0.543       9.15    0.100     52.86        0.055 0.86 1.00
           10     68      51.79 0.370       9.15    0.100     52.86        0.079 0.86 1.00
           10     69      51.23 0.232      15.24    0.100     52.86        0.189 0.86 1.00
           10     70      79.43 0.026      91.46    0.100     52.86        9.023 0.86 1.00
           10     71      63.00 0.232      15.24    0.100     35.00        0.194 0.86 1.00
           10     72      86.71 0.375       9.15    0.100     35.00        0.088 0.86 1.00
           10     73      46.23 0.060      60.98    0.100     35.00        2.621 0.86 1.00
           10     74      83.40 0.588       9.15    0.100     35.00        0.060 0.86 1.00
           10     75     904.42 0.810       9.15    0.100     52.86        0.176 0.86 1.00
           10     76     188.13 0.730       9.15    0.100     35.00        0.071 0.86 1.00
           11     77     240.31 0.219      15.24    0.140     59.03        0.373 0.86 1.00
           11     78     367.06 0.071      60.98    0.140     59.03        4.345 0.86 1.00
           11     79     325.33 0.227      15.24    0.100     35.00        0.196 0.86 1.00
           11     80     182.46 0.081      60.98    0.100     35.00        1.937 0.86 1.00
           11     81     176.88 0.360       9.15    0.100     35.00        0.075 0.86 1.00
           11     82     444.93 0.750       9.15    0.100     52.86        0.049 0.86 1.00
           11     83     206.73 0.381       9.15    0.100     52.86        0.073 0.86 1.00
           11     84     765.53 0.735       9.15    0.100     52.86        0.061 0.86 1.00
           12     85     383.91 0.223      15.24    0.140     59.03        0.383 0.86 1.00
           12     86     274.17 0.071      60.98    0.140     59.03        4.329 0.86 1.00
           12     87     645.16 0.227      15.24    0.100     35.00        0.222 0.86 1.00
           12     88     359.68 0.078      60.98    0.100     35.00        2.045 0.86 1.00
           12     89     305.90 0.356       9.15    0.100     35.00        0.085 0.86 1.00
           12     90    1387.32 0.892       9.15    0.100     52.86        0.076 0.86 1.00
           12     91     317.93 0.809       9.15    0.100     52.86        0.043 0.86 1.00
           13     92    1549.32 0.002     121.95    0.140     67.84      302.196 0.86 1.00
           13     93     408.47 0.001     121.95    0.140     67.84      603.716 0.86 1.00
           13     94     281.56 0.015     121.95    0.140     67.84       40.276 0.86 1.00
           13     95    1784.40 0.836       9.15    0.100     52.86        0.041 0.86 1.00
           13     96     970.26 0.863       9.15    0.100     52.86        0.035 0.86 1.00
           13     97    3501.59 0.824       9.15    0.100     52.86        0.053 0.86 1.00
           13     98    3530.97 0.834       9.15    0.100     52.86        0.052 0.86 1.00
           14     99      39.33 0.000     121.95    0.100     52.86     3080.082 0.86 1.00
           14    100      36.29 0.000     121.95    0.100     52.86     3080.026 0.86 1.00
           14    101      31.64 0.018     121.95    0.100     52.86       17.177 0.86 1.00
           14    102     137.15 0.777       9.15    0.100     52.86        0.055 0.86 1.00
           14    103      66.60 0.021      91.46    0.100     52.86       11.114 0.86 1.00
           14    104     222.81 0.746       9.15    0.100     52.86        0.071 0.86 1.00
           15    105     187.07 0.000     121.95    0.100     52.86     3082.366 0.86 1.00
           15    106     146.15 0.000     121.95    0.100     52.86     3081.763 0.86 1.00
           15    107     826.23 0.824       9.15    0.100     52.86        0.144 0.86 1.00
           15    108     200.10 0.031      91.46    0.100     52.86        7.700 0.86 1.00
           15    109     475.51 0.822       9.15    0.100     52.86        0.100 0.86 1.00
           15    110     141.00 0.030      91.46    0.100     52.86        7.885 0.86 1.00
           15    111     303.23 0.881       9.15    0.150     60.79        0.126 0.86 1.00
           15    112     162.03 0.876       9.15    0.150     60.79        0.098 0.86 1.00
           16    113    2096.96 0.035      91.46    0.100     52.86        6.675 0.86 1.00
           16    114    8001.21 0.827       9.15    0.100     52.86        0.063 0.86 1.00
           16    115     352.77 0.376       9.15    0.100     52.86        0.065 0.86 1.00
           16    116     997.09 0.792       9.15    0.100     52.86        0.035 0.86 1.00
           16    117     313.12 0.231      15.24    0.100     52.86        0.171 0.86 1.00
           17    118     305.94 0.041      91.46    0.140     67.84       11.087 0.86 1.00
           17    119     122.57 0.207      15.24    0.140     67.84        0.371 0.86 1.00
           17    120     368.55 0.060      60.98    0.140     67.84        5.072 0.86 1.00
           17    121     301.06 0.226      15.24    0.100     52.86        0.181 0.86 1.00
           17    122     269.36 0.070      60.98    0.100     52.86        2.222 0.86 1.00
           17    123     671.78 0.642       9.15    0.100     52.86        0.048 0.86 1.00
           17    124     322.64 0.377       9.15    0.100     52.86        0.069 0.86 1.00
           18    125     140.01 0.743       9.15    0.140     67.84        0.067 0.86 1.00
           18    126     502.49 0.013     121.95    0.140     67.84       46.619 0.86 1.00
           18    127      82.04 0.076      60.98    0.140     67.84        3.986 0.86 1.00
           18    128      29.98 0.196      18.29    0.140     67.84        0.465 0.86 1.00
           18    129     168.32 0.008     121.95    0.140     67.84       75.533 0.86 1.00
           18    130      57.40 0.706       9.15    0.140     67.84        0.067 0.86 1.00
           18    131    3007.44 0.812       9.15    0.100     52.86        0.088 0.86 1.00
           18    132     931.21 0.783       9.15    0.100     52.86        0.051 0.86 1.00
           18    133     249.31 0.022      91.46    0.100     52.86       10.555 0.86 1.00
           19    134    2752.81 0.809       9.15    0.100     52.86        0.109 0.86 1.00
           20    135      74.42 0.015     121.95    0.140     67.84       40.469 0.86 1.00
           20    136      19.41 0.744       9.15    0.140     67.84        0.068 0.86 1.00
           20    137       5.27 0.661       9.15    0.140     67.84        0.071 0.86 1.00
           20    138       9.29 0.014     121.95    0.140     67.84       43.149 0.86 1.00
           20    139      23.67 0.039      91.46    0.140     67.84       11.659 0.86 1.00
           20    140       7.41 0.745       9.15    0.140     67.84        0.064 0.86 1.00
           20    141     596.36 0.857       9.15    0.100     52.86        0.123 0.86 1.00
           20    142     113.50 0.764       9.15    0.100     52.86        0.054 0.86 1.00
           20    143      42.34 0.377       9.15    0.100     52.86        0.075 0.86 1.00
           20    144      34.23 0.231      15.24    0.100     52.86        0.182 0.86 1.00
           20    145     208.39 0.884       9.15    0.100     52.86        0.064 0.86 1.00
           21    146     355.62 0.044      91.46    0.140     67.84       10.334 0.86 1.00
           21    147     107.47 0.683       9.15    0.140     67.84        0.069 0.86 1.00
           21    148     272.56 0.039      91.46    0.140     67.84       11.645 0.86 1.00
           21    149    2020.32 0.794       9.15    0.100     52.86        0.054 0.86 1.00
           21    150    1408.16 0.719       9.15    0.100     52.86        0.051 0.86 1.00
           21    151     469.12 0.380       9.15    0.100     52.86        0.070 0.86 1.00
           22    152     574.28 0.000     121.95    0.100     52.86     3080.048 0.86 1.00
           22    153    1877.28 0.885       9.15    0.100     52.86        0.048 0.86 1.00
           23    154    1724.77 0.868       9.15    0.100     35.00        0.044 0.84 1.00
           23    155    2151.85 0.735       9.15    0.100     35.00        0.054 0.84 1.00
           24    156     639.69 0.235      15.24    0.100     35.00        0.230 0.84 1.00
           24    157     969.86 0.378       9.15    0.100     35.00        0.129 0.84 1.00
           24    158     677.19 0.027      91.46    0.100     35.00        8.833 0.84 1.00
           24    159    1589.30 0.652       9.15    0.100     35.00        0.118 0.84 1.00
           25    160     196.96 0.015     121.95    0.100     35.00       22.375 0.84 1.00
           25    161     398.43 0.753       9.15    0.100     35.00        0.354 0.84 1.00
           25    162      99.75 0.006     121.95    0.100     35.00       52.840 0.84 1.00
           25    163      34.04 0.642       9.15    0.100     35.00        0.076 0.84 1.00
           26    164     119.64 0.381       9.15    0.100     35.00        0.118 0.84 1.00
           26    165     277.39 0.649       9.15    0.100     35.00        0.131 0.84 1.00
           26    166     159.48 0.017     121.95    0.100     35.00       18.665 0.84 1.00
           26    167     483.49 0.753       9.15    0.100     35.00        0.176 0.84 1.00
           26    168     118.80 0.382       9.15    0.100     35.00        0.118 0.84 1.00
           26    169     401.14 0.749       9.15    0.100     35.00        0.154 0.84 1.00
           27    170     338.66 0.378       9.15    0.100     35.00        0.072 0.84 1.00
           27    171     312.03 0.024      91.46    0.100     35.00        9.684 0.84 1.00
           27    172     862.12 0.742       9.15    0.100     35.00        0.050 0.84 1.00
           27    173     582.78 0.004     121.95    0.100     39.59       77.229 0.84 1.00
           27    174     139.23 0.654       9.15    0.100     39.59        0.039 0.84 1.00
           27    175     958.00 0.702       9.15    0.100     35.00        0.054 0.84 1.00
           27    176    1561.98 0.011     121.95    0.100     35.00       28.370 0.84 1.00
           27    177     569.73 0.377       9.15    0.100     35.00        0.079 0.84 1.00
           27    178     725.00 0.752       9.15    0.100     35.00        0.047 0.84 1.00
           27    179     199.50 0.380       9.15    0.100     35.00        0.068 0.84 1.00
           27    180     105.33 0.822       9.15    0.100     35.00        0.031 0.84 1.00
           28    181     111.44 0.237      15.24    0.100     35.00        0.186 0.84 1.00
           28    182     243.86 0.649       9.15    0.100     35.00        0.063 0.84 1.00
           28    183     188.90 0.377       9.15    0.100     35.00        0.089 0.84 1.00
           28    184     543.94 0.241      15.24    0.100     35.00        0.255 0.84 1.00
           28    185    1096.23 0.379       9.15    0.100     35.00        0.189 0.84 1.00
           28    186    1117.54 0.557       9.15    0.100     35.00        0.151 0.84 1.00
           29    187    1102.46 0.579       9.15    0.100     35.00        0.049 0.84 1.00
           29    188     862.44 0.378       9.15    0.100     35.00        0.070 0.84 1.00
           29    189     459.79 0.239      15.24    0.100     35.00        0.168 0.84 1.00
           29    190     234.44 0.698       9.15    0.100     35.00        0.035 0.84 1.00
           29    191      84.85 0.377       9.15    0.100     35.00        0.062 0.84 1.00
           29    192      68.52 0.232      15.24    0.100     35.00        0.167 0.84 1.00
           29    193     131.54 0.381       9.15    0.100     35.00        0.062 0.84 1.00
           29    194     494.39 0.699       9.15    0.100     35.00        0.037 0.84 1.00
           30    195     147.63 0.552       9.15    0.100     35.00        0.536 0.84 1.00
           30    196      61.88 0.241      15.24    0.100     35.00        0.537 0.84 1.00
           30    197     141.70 0.380       9.15    0.100     35.00        0.622 0.84 1.00
           31    198     515.84 0.582       9.15    0.100     35.00        0.078 0.84 1.00
           31    199     378.17 0.381       9.15    0.100     35.00        0.095 0.84 1.00
           31    200     663.21 0.380       9.15    0.100     35.00        0.118 0.84 1.00
           31    201     780.24 0.569       9.15    0.100     35.00        0.096 0.84 1.00
           31    202     328.24 0.241      15.24    0.100     35.00        0.202 0.84 1.00
           31    203     145.49 0.382       9.15    0.100     35.00        0.076 0.84 1.00
           31    204     647.74 0.737       9.15    0.100     35.00        0.073 0.84 1.00
           32    205      34.19 0.238      15.24    0.100     35.00        0.173 0.84 1.00
           32    206      70.64 0.381       9.15    0.100     35.00        0.076 0.84 1.00
           32    207      91.75 0.567       9.15    0.100     35.00        0.057 0.84 1.00
           33    208     200.24 0.234      15.24    0.100     35.00        0.166 0.84 1.00
           33    209     305.57 0.559       9.15    0.100     35.00        0.042 0.84 1.00
           33    210     290.32 0.376       9.15    0.100     35.00        0.063 0.84 1.00
           33    211    1357.13 0.710       9.15    0.100     35.00        0.036 0.84 1.00
           33    212     370.40 0.379       9.15    0.100     35.00        0.062 0.84 1.00
           33    213     522.51 0.679       9.15    0.100     35.00        0.036 0.84 1.00
           33    214     235.70 0.378       9.15    0.100     35.00        0.062 0.84 1.00
           33    215     153.98 0.234      15.24    0.100     35.00        0.165 0.84 1.00
           34    216      76.85 0.238      15.24    0.100     35.00        0.175 0.84 1.00
           34    217     167.56 0.379       9.15    0.100     35.00        0.080 0.84 1.00
           34    218     195.94 0.559       9.15    0.100     35.00        0.060 0.84 1.00
           34    219     873.13 0.568       9.15    0.100     35.00        0.109 0.84 1.00
           34    220     365.81 0.238      15.24    0.100     35.00        0.215 0.84 1.00
           34    221     700.85 0.380       9.15    0.100     35.00        0.128 0.84 1.00
           35    222     118.51 0.219      15.24    0.140     67.84        0.395 0.86 1.00
           35    223     183.91 0.053      60.98    0.140     67.84        5.891 0.86 1.00
           35    224     230.41 0.229      15.24    0.100     52.86        0.235 0.86 1.00
           35    225     153.18 0.061      60.98    0.100     52.86        2.642 0.86 1.00
           35    226     191.92 0.369       9.15    0.100     52.86        0.103 0.86 1.00
           35    227      34.58 0.064      60.98    0.140     67.84        4.757 0.86 1.00
           35    228      40.06 0.732       9.15    0.140     67.84        0.072 0.86 1.00
           35    229      37.19 0.221      15.24    0.140     67.84        0.360 0.86 1.00
           35    230      83.59 0.218      15.24    0.140     67.84        0.384 0.86 1.00
           35    231     142.98 0.054      60.98    0.140     67.84        5.745 0.86 1.00
           35    232     145.10 0.237      15.24    0.100     52.86        0.206 0.86 1.00
           35    233     539.75 0.719       9.15    0.100     52.86        0.107 0.86 1.00
           35    234     222.72 0.377       9.15    0.100     52.86        0.107 0.86 1.00
           35    235     106.77 0.372       9.15    0.100     52.86        0.086 0.86 1.00
           35    236     146.68 0.695       9.15    0.100     52.86        0.058 0.86 1.00
           35    237      96.62 0.233      15.24    0.100     52.86        0.196 0.86 1.00
           36    238      22.48 0.222      15.24    0.140     73.13        0.342 0.86 1.00
           36    239      82.57 0.014     121.95    0.140     73.13       43.147 0.86 1.00
           36    240     352.60 0.027      91.46    0.140     67.84       16.857 0.86 1.00
           36    241     155.59 0.222      15.24    0.140     67.84        0.351 0.86 1.00
           36    242      31.60 0.365       9.15    0.100     64.32        0.065 0.86 1.00
           36    243      47.30 0.228      15.24    0.100     64.32        0.172 0.86 1.00
           36    244      34.07 0.051      60.98    0.100     64.32        3.025 0.86 1.00
           36    245     254.11 0.050      60.98    0.100     52.86        3.115 0.86 1.00
           36    246     218.16 0.365       9.15    0.100     52.86        0.071 0.86 1.00
           36    247     302.70 0.228      15.24    0.100     52.86        0.184 0.86 1.00
           36    248     115.51 0.792       9.15    0.100     52.86        0.032 0.86 1.00
           36    249     332.38 0.774       9.15    0.100     52.86        0.038 0.86 1.00
           36    250     100.57 0.377       9.15    0.100     52.86        0.065 0.86 1.00
           36    251     503.26 0.851       9.15    0.100     52.86        0.039 0.86 1.00
           37    252     511.19 0.381       9.15    0.100     35.00        0.129 0.84 1.00
           37    253     676.49 0.566       9.15    0.100     35.00        0.114 0.84 1.00
           38    254      65.32 0.014     121.95    0.140     67.84       44.337 0.86 1.00
           38    255      52.75 0.230      15.24    0.100     52.86        0.300 0.86 1.00
           38    256      57.31 0.373       9.15    0.100     52.86        0.164 0.86 1.00
           38    257      69.17 0.032      91.46    0.100     52.86        7.841 0.86 1.00
           38    258       9.87 0.367       9.15    0.100     52.86        0.085 0.86 1.00
           38    259       8.01 0.239      15.24    0.100     52.86        0.186 0.86 1.00
           38    260      12.15 0.030      91.46    0.100     52.86        7.838 0.86 1.00
           38    261       8.09 0.897       9.15    0.100     52.86        0.038 0.86 1.00
           39    262     694.06 0.594       9.15    0.100     52.86        0.055 0.86 1.00
           39    263     209.40 0.238      15.24    0.100     52.86        0.172 0.86 1.00
           39    264     416.69 0.381       9.15    0.100     52.86        0.074 0.86 1.00
           39    265     718.69 0.598       9.15    0.100     52.86        0.056 0.86 1.00
           39    266     409.78 0.381       9.15    0.100     52.86        0.073 0.86 1.00
           39    267     382.17 0.382       9.15    0.100     52.86        0.072 0.86 1.00
           39    268    1600.70 0.728       9.15    0.100     52.86        0.063 0.86 1.00
           39    269     482.70 0.749       9.15    0.100     52.86        0.042 0.86 1.00
           40    270     307.55 0.554       9.15    0.100     52.86        0.781 0.86 1.00
           40    271     296.80 0.379       9.15    0.100     52.86        0.907 0.86 1.00
           40    272     144.06 0.239      15.24    0.100     52.86        0.786 0.86 1.00
           41    273      65.82 0.558       9.15    0.100     52.86        0.201 0.86 1.00
           41    274      54.28 0.380       9.15    0.100     52.86        0.221 0.86 1.00
           41    275      29.23 0.236      15.24    0.100     52.86        0.293 0.86 1.00
           41    276      29.32 0.892       9.15    0.100     52.86        0.090 0.86 1.00
           41    277       7.51 0.381       9.15    0.100     52.86        0.089 0.86 1.00
           42    278     188.23 0.857       9.15    0.100     52.86        0.134 0.86 1.00
           42    279     124.23 0.735       9.15    0.100     52.86        0.111 0.86 1.00
           42    280      47.32 0.380       9.15    0.100     52.86        0.106 0.86 1.00
           42    281      33.56 0.944       9.15    0.150     60.79        0.087 0.86 1.00
           42    282      18.50 0.900       9.15    0.150     60.79        0.077 0.86 1.00
           43    283     735.25 0.377       9.15    0.100     35.00        0.066 0.84 1.00
           43    284     744.45 0.565       9.15    0.100     35.00        0.045 0.84 1.00
           43    285     481.83 0.236      15.24    0.100     35.00        0.168 0.84 1.00
           43    286     200.92 0.382       9.15    0.100     35.00        0.062 0.84 1.00
           43    287     898.44 0.698       9.15    0.100     35.00        0.038 0.84 1.00
           43    288     569.96 0.731       9.15    0.100     35.00        0.035 0.84 1.00
           43    289     146.69 0.380       9.15    0.100     35.00        0.062 0.84 1.00
           44    290     181.28 0.381       9.15    0.100     35.00        0.079 0.84 1.00
           44    291     645.13 0.725       9.15    0.100     35.00        0.075 0.84 1.00
           44    292     756.06 0.645       9.15    0.100     35.00        0.088 0.84 1.00
           44    293     729.06 0.373       9.15    0.100     35.00        0.126 0.84 1.00
           44    294     577.93 0.042      91.46    0.100     35.00        5.739 0.84 1.00
           44    295     682.17 0.231      15.24    0.100     35.00        0.251 0.84 1.00
           44    296     848.75 0.841       9.15    0.100     35.00        0.078 0.84 1.00
           44    297    4869.02 0.738       9.15    0.100     35.00        0.280 0.84 1.00
           45    298     613.58 0.815       9.15    0.100     52.86        0.058 0.86 1.00
           45    299     147.35 0.380       9.15    0.100     52.86        0.073 0.86 1.00
           45    300     373.43 0.645       9.15    0.100     52.86        0.057 0.86 1.00
           45    301     240.89 0.377       9.15    0.100     52.86        0.080 0.86 1.00
           45    302     191.91 0.233      15.24    0.100     52.86        0.187 0.86 1.00
           45    303    2779.88 0.765       9.15    0.100     52.86        0.146 0.86 1.00
           45    304    1027.03 0.766       9.15    0.100     52.86        0.079 0.86 1.00
           46    305      83.60 0.225      15.24    0.100     35.00        0.175 0.84 1.00
           46    306      85.49 0.376       9.15    0.100     35.00        0.064 0.84 1.00
           46    307      97.71 0.054      60.98    0.100     35.00        2.864 0.84 1.00
           46    308     231.53 0.704       9.15    0.100     35.00        0.038 0.84 1.00
           46    309      40.14 0.630       9.15    0.100     35.00        0.038 0.84 1.00
           46    310      27.16 0.232      15.24    0.100     35.00        0.167 0.84 1.00
           46    311      31.84 0.374       9.15    0.100     35.00        0.063 0.84 1.00
           46    312    1739.05 0.692       9.15    0.100     35.00        0.066 0.84 1.00
           46    313     469.06 0.382       9.15    0.100     35.00        0.074 0.84 1.00
           47    314     483.29 0.553       9.15    0.100     52.86        0.270 0.86 1.00
           47    315     512.59 0.377       9.15    0.100     52.86        0.345 0.86 1.00
           47    316     322.23 0.236      15.24    0.100     52.86        0.427 0.86 1.00
           47    317     438.66 0.849       9.15    0.100     52.86        0.201 0.86 1.00
           47    318      73.24 0.815       9.15    0.100     52.86        0.065 0.86 1.00
           47    319      21.55 0.379       9.15    0.100     52.86        0.079 0.86 1.00
           48    320     781.24 0.549       9.15    0.100     52.86        0.077 0.86 1.00
           48    321     839.32 0.378       9.15    0.100     52.86        0.105 0.86 1.00
           48    322     535.30 0.236      15.24    0.100     52.86        0.205 0.86 1.00
           49    323     404.28 0.235      15.24    0.100     52.86        0.226 0.86 1.00
           49    324     602.91 0.377       9.15    0.100     52.86        0.124 0.86 1.00
           49    325     542.30 0.548       9.15    0.100     52.86        0.091 0.86 1.00
           49    326     113.73 0.382       9.15    0.100     52.86        0.075 0.86 1.00
           49    327     540.65 0.743       9.15    0.100     52.86        0.074 0.86 1.00
           49    328      46.89 0.383       9.15    0.100     52.86        0.067 0.86 1.00
           49    329     130.79 0.684       9.15    0.100     52.86        0.046 0.86 1.00
           50    330     680.38 0.036      91.46    0.100     52.86        6.686 0.86 1.00
           50    331    2502.29 0.832       9.15    0.100     52.86        0.148 0.86 1.00
           50    332     493.66 0.846       9.15    0.100     52.86        0.056 0.86 1.00
           50    333     214.00 0.018     121.95    0.100     52.86       17.250 0.86 1.00
           50    334     199.24 0.376       9.15    0.100     52.86        0.080 0.86 1.00
           50    335     740.28 0.838       9.15    0.100     52.86        0.069 0.86 1.00
           50    336     486.92 0.827       9.15    0.150     60.79        0.104 0.86 1.00
           50    337     240.95 0.027      91.46    0.150     60.79       19.422 0.86 1.00
           50    338      94.94 0.015     121.95    0.150     60.79       46.297 0.86 1.00
           50    339     140.82 0.780       9.15    0.150     60.79        0.081 0.86 1.00
           50    340      75.38 0.031      91.46    0.150     60.79       16.822 0.86 1.00
           50    341     162.46 0.942       9.15    0.150     60.79        0.070 0.86 1.00
           51    342     479.16 0.028      91.46    0.100     52.86        8.328 0.86 1.00
           51    343    1323.41 0.809       9.15    0.100     52.86        0.054 0.86 1.00
           51    344     683.51 0.853       9.15    0.100     52.86        0.041 0.86 1.00
           51    345     212.06 0.811       9.15    0.150     60.79        0.071 0.86 1.00
           51    346     126.05 0.020      91.46    0.150     60.79       26.022 0.86 1.00
           51    347      81.95 0.892       9.15    0.150     60.79        0.061 0.86 1.00
           51    348      39.70 0.027      91.46    0.150     60.79       19.258 0.86 1.00
           52    349       2.23 0.000     121.95    0.140     67.84     6038.235 0.86 1.00
           52    350      14.34 0.002     121.95    0.100     52.86      156.917 0.86 1.00
           52    351       3.88 0.975       9.15    0.100     52.86        0.057 0.86 1.00
           53    352     605.54 0.005     121.95    0.140     67.84      120.905 0.86 1.00
           53    353     105.39 0.000     121.95    0.140     67.84     6035.591 0.86 1.00
           53    354     376.12 0.377       9.15    0.100     52.86        0.069 0.86 1.00
           53    355     836.20 0.688       9.15    0.100     52.86        0.045 0.86 1.00
           53    356     123.31 0.020     121.95    0.100     52.86       15.416 0.86 1.00
           53    357      79.56 0.378       9.15    0.100     52.86        0.063 0.86 1.00
           53    358     257.04 0.769       9.15    0.100     52.86        0.034 0.86 1.00
           53    359     267.46 0.711       9.15    0.100     52.86        0.037 0.86 1.00
           53    360     120.30 0.377       9.15    0.100     52.86        0.064 0.86 1.00
           53    361     100.81 0.230      15.24    0.100     52.86        0.171 0.86 1.00
           53    362     151.81 0.029      91.46    0.100     52.86        7.983 0.86 1.00
           53    363     402.34 0.372       9.15    0.100     52.86        0.070 0.86 1.00
           53    364     422.81 0.033      91.46    0.100     52.86        7.042 0.86 1.00
           53    365     576.21 0.688       9.15    0.100     52.86        0.042 0.86 1.00
           53    366     364.07 0.232      15.24    0.100     52.86        0.176 0.86 1.00
           53    367     207.64 0.008     121.95    0.100     52.86       38.538 0.86 1.00
           53    368     164.04 0.720       9.15    0.100     52.86        0.035 0.86 1.00
           54    369     550.52 0.377       9.15    0.100     52.86        0.174 0.86 1.00
           54    370     521.53 0.552       9.15    0.100     52.86        0.133 0.86 1.00
           54    371     337.78 0.237      15.24    0.100     52.86        0.265 0.86 1.00
           54    372     826.46 0.777       9.15    0.100     52.86        0.147 0.86 1.00
           54    373     322.85 0.697       9.15    0.150     60.79        0.152 0.86 1.00
           55    374     853.49 0.860       9.15    0.100     52.86        0.032 0.86 1.00
           55    375     225.26 0.030      91.46    0.100     52.86        7.710 0.86 1.00
           55    376     171.46 0.377       9.15    0.100     52.86        0.063 0.86 1.00
           55    377     452.51 0.716       9.15    0.100     52.86        0.035 0.86 1.00
           56    378     837.37 0.000     121.95    0.100     52.86     3087.262 0.86 1.00
           56    379     482.43 0.000     121.95    0.100     52.86     3084.200 0.86 1.00
           56    380    3388.73 0.812       9.15    0.100     52.86        0.307 0.86 1.00
           56    381     841.39 0.033      91.46    0.100     52.86        7.591 0.86 1.00
           56    382    2217.74 0.860       9.15    0.100     52.86        0.214 0.86 1.00
           57    383    6713.33 0.872       9.15    0.100     52.86        0.184 0.86 1.00
           57    384     812.03 0.381       9.15    0.100     52.86        0.096 0.86 1.00
           57    385    3328.96 0.732       9.15    0.100     52.86        0.124 0.86 1.00
           58    386      92.28 0.026      91.46    0.100     52.86        9.227 0.86 1.00
           58    387     413.33 0.912       9.15    0.100     52.86        0.177 0.86 1.00
           59    388    1543.53 0.025      91.46    0.140     67.84       18.165 0.86 1.00
           59    389     756.84 0.006     121.95    0.140     67.84      100.653 0.86 1.00
           59    390     619.85 0.027      91.46    0.140     73.13       16.791 0.86 1.00
           59    391     558.84 0.022      91.46    0.140     67.84       20.601 0.86 1.00
           59    392    1641.62 0.378       9.15    0.100     52.86        0.069 0.86 1.00
           59    393    6169.67 0.790       9.15    0.100     52.86        0.048 0.86 1.00
           59    394     483.13 0.378       9.15    0.100     52.86        0.064 0.86 1.00
           59    395    1728.82 0.795       9.15    0.100     52.86        0.035 0.86 1.00
           59    396    1981.33 0.809       9.15    0.100     52.86        0.035 0.86 1.00
           60    397    1275.54 0.855       9.15    0.100     52.86        0.055 0.86 1.00
           60    398     450.57 0.857       9.15    0.100     52.86        0.038 0.86 1.00
           61    399      48.36 0.626       9.15    0.100     52.86        0.039 0.86 1.00
           61    400      26.83 0.237      15.24    0.100     52.86        0.165 0.86 1.00
           61    401      45.60 0.378       9.15    0.100     52.86        0.064 0.86 1.00
           61    402     115.68 0.612       9.15    0.100     52.86        0.043 0.86 1.00
           61    403     183.83 0.230      15.24    0.100     52.86        0.181 0.86 1.00
           61    404     147.01 0.051      60.98    0.100     52.86        3.049 0.86 1.00
           61    405     183.42 0.372       9.15    0.100     52.86        0.072 0.86 1.00
           61    406      37.13 0.220      15.24    0.140     67.84        0.348 0.86 1.00
           61    407     133.30 0.025      91.46    0.140     67.84       18.163 0.86 1.00
           61    408     334.54 0.043      91.46    0.140     67.84       10.627 0.86 1.00
           61    409     102.98 0.215      15.24    0.140     67.84        0.362 0.86 1.00
           61    410     312.80 0.375       9.15    0.100     52.86        0.077 0.86 1.00
           61    411     260.68 0.232      15.24    0.100     52.86        0.184 0.86 1.00
           61    412     635.91 0.714       9.15    0.100     52.86        0.054 0.86 1.00
           61    413     312.81 0.376       9.15    0.100     52.86        0.077 0.86 1.00
           61    414     779.69 0.725       9.15    0.100     52.86        0.057 0.86 1.00
           61    415     252.00 0.231      15.24    0.100     52.86        0.185 0.86 1.00
           62    416      14.28 0.000     121.95    0.140     67.84     6043.612 0.86 1.00
           62    417       3.82 0.001     121.95    0.140     67.84      604.488 0.86 1.00
           62    418       0.52 0.480       9.15    0.100     52.86        0.053 0.86 1.00
           62    419       0.85 0.008     121.95    0.100     52.86       38.568 0.86 1.00
           62    420       1.10 0.396       9.15    0.100     52.86        0.067 0.86 1.00
           63    421     326.92 0.558       9.15    0.100     52.86        0.043 0.86 1.00
           63    422     362.19 0.378       9.15    0.100     52.86        0.063 0.86 1.00
           63    423     174.96 0.241      15.24    0.100     52.86        0.161 0.86 1.00
           63    424     987.07 0.550       9.15    0.100     52.86        0.046 0.86 1.00
           63    425    1049.97 0.379       9.15    0.100     52.86        0.067 0.86 1.00
           63    426     528.92 0.241      15.24    0.100     52.86        0.164 0.86 1.00
           63    427    1272.84 0.752       9.15    0.100     52.86        0.036 0.86 1.00
           63    428     426.92 0.379       9.15    0.100     52.86        0.063 0.86 1.00
           63    429     875.85 0.750       9.15    0.100     52.86        0.034 0.86 1.00
           63    430     298.41 0.379       9.15    0.100     52.86        0.063 0.86 1.00
           64    431     291.96 0.000     121.95    0.100     52.86     3082.215 0.86 1.00
           64    432    1955.32 0.816       9.15    0.100     52.86        0.188 0.86 1.00
           64    433     271.23 0.821       9.15    0.150     60.79        0.103 0.86 1.00
           64    434      67.25 0.018     121.95    0.150     60.79       38.611 0.86 1.00
           65    435    3276.54 0.887       9.15    0.100     52.86        0.111 0.86 1.00
           65    436     639.28 0.887       9.15    0.100     52.86        0.046 0.86 1.00
           66    437    5456.61 0.884       9.15    0.100     52.86        0.121 0.86 1.00
           67    438      90.82 0.023      91.46    0.100     52.86       10.074 0.86 1.00
           67    439     354.02 0.972       9.15    0.100     52.86        0.036 0.86 1.00
           67    440      63.69 0.903       9.15    0.100     52.86        0.028 0.86 1.00
           68    441      51.09 0.553       9.15    0.100     52.86        0.043 0.86 1.00
           68    442      46.29 0.382       9.15    0.100     52.86        0.062 0.86 1.00
           68    443     109.65 0.381       9.15    0.100     52.86        0.063 0.86 1.00
           68    444     149.13 0.572       9.15    0.100     52.86        0.043 0.86 1.00
           68    445     320.61 0.893       9.15    0.100     52.86        0.030 0.86 1.00
           68    446     364.95 0.692       9.15    0.100     52.86        0.038 0.86 1.00
           68    447     127.91 0.380       9.15    0.100     52.86        0.063 0.86 1.00
           68    448     106.17 0.879       9.15    0.150     60.79        0.061 0.86 1.00
           68    449      43.04 0.757       9.15    0.150     60.79        0.070 0.86 1.00
           68    450      21.78 0.025      91.46    0.150     60.79       20.790 0.86 1.00
           69    451    1268.47 0.551       9.15    0.100     52.86        0.166 0.86 1.00
           69    452     796.55 0.238      15.24    0.100     52.86        0.297 0.86 1.00
           69    453    1372.80 0.377       9.15    0.100     52.86        0.218 0.86 1.00
           69    454     102.24 0.377       9.15    0.100     52.86        0.077 0.86 1.00
           69    455      92.55 0.229      15.24    0.100     52.86        0.189 0.86 1.00
           69    456     299.65 0.729       9.15    0.100     52.86        0.063 0.86 1.00
           69    457     236.02 0.733       9.15    0.100     52.86        0.057 0.86 1.00
           69    458      68.16 0.380       9.15    0.100     52.86        0.072 0.86 1.00
           70    459    1100.78 0.541       9.15    0.100     52.86        0.128 0.86 1.00
           70    460     908.95 0.239      15.24    0.100     52.86        0.279 0.86 1.00
           70    461    1534.24 0.376       9.15    0.100     52.86        0.196 0.86 1.00
           71    462     581.51 0.379       9.15    0.100     52.86        0.285 0.86 1.00
           71    463    1865.21 0.745       9.15    0.100     52.86        0.493 0.86 1.00
           71    464     386.51 0.782       9.15    0.100     52.86        0.144 0.86 1.00
           72    465     163.84 0.542       9.15    0.100     52.86        0.043 0.86 1.00
           72    466     250.58 0.375       9.15    0.100     52.86        0.062 0.86 1.00
           72    467     154.41 0.237      15.24    0.100     52.86        0.163 0.86 1.00
           72    468      36.29 0.028      91.46    0.100     52.86        8.248 0.86 1.00
           72    469     127.21 0.776       9.15    0.100     52.86        0.030 0.86 1.00
           72    470     369.75 0.741       9.15    0.100     52.86        0.031 0.86 1.00
           72    471     149.24 0.379       9.15    0.100     52.86        0.061 0.86 1.00
           73    472    1288.18 0.755       9.15    0.100     52.86        0.035 0.86 1.00
           73    473     685.26 0.693       9.15    0.100     52.86        0.036 0.86 1.00
           73    474     285.85 0.379       9.15    0.100     52.86        0.063 0.86 1.00
           73    475     205.43 0.233      15.24    0.100     52.86        0.167 0.86 1.00
           74    476    4952.04 0.803       9.15    0.100     52.86        0.082 0.86 1.00
           74    477     606.40 0.231      15.24    0.100     52.86        0.183 0.86 1.00
           74    478     769.22 0.378       9.15    0.100     52.86        0.076 0.86 1.00
           74    479    1962.70 0.739       9.15    0.100     52.86        0.056 0.86 1.00
           74    480    2256.92 0.818       9.15    0.100     52.86        0.055 0.86 1.00
           75    481    1066.50 0.838       9.15    0.100     52.86        0.042 0.86 1.00
           75    482     314.01 0.037      91.46    0.100     52.86        6.277 0.86 1.00
           75    483     225.53 0.023      91.46    0.100     52.86       10.074 0.86 1.00
           75    484     790.73 0.889       9.15    0.100     52.86        0.037 0.86 1.00
           76    485      51.61 0.001     121.95    0.140     67.84      605.018 0.86 1.00
           76    486     118.08 0.835       9.15    0.100     52.86        0.091 0.86 1.00
           76    487     106.97 0.920       9.15    0.100     52.86        0.081 0.86 1.00
           76    488      41.30 0.015     121.95    0.100     52.86       20.807 0.86 1.00
           77    489     351.43 0.000     121.95    0.100     52.86     3097.619 0.86 1.00
           77    490     136.54 0.000     121.95    0.100     52.86     3087.290 0.86 1.00
           77    491    1372.62 0.879       9.15    0.100     52.86        0.624 0.86 1.00
           77    492     731.30 0.904       9.15    0.100     52.86        0.366 0.86 1.00
           78    493     196.98 0.239      15.24    0.100     52.86        0.166 0.86 1.00
           78    494     289.09 0.376       9.15    0.100     52.86        0.067 0.86 1.00
           78    495     266.00 0.571       9.15    0.100     52.86        0.045 0.86 1.00
           78    496      94.40 0.530       9.15    0.100     52.86        0.045 0.86 1.00
           78    497     123.06 0.379       9.15    0.100     52.86        0.063 0.86 1.00
           78    498      63.15 0.244      15.24    0.100     52.86        0.160 0.86 1.00
           78    499     795.08 0.789       9.15    0.100     52.86        0.039 0.86 1.00
           78    500     978.93 0.377       9.15    0.100     52.86        0.077 0.86 1.00
           78    501    3402.88 0.786       9.15    0.100     52.86        0.063 0.86 1.00
           79    502      17.93 0.003     121.95    0.140     67.84      201.256 0.86 1.00
           79    503      17.23 0.000     121.95    0.140     67.84     6035.685 0.86 1.00
           79    504     110.90 0.877       9.15    0.100     52.86        0.039 0.86 1.00
           79    505      14.52 0.012     121.95    0.100     52.86       25.687 0.86 1.00
           79    506      29.66 0.941       9.15    0.100     52.86        0.028 0.86 1.00
           79    507      14.85 0.692       9.15    0.150     60.79        0.078 0.86 1.00
           79    508      11.80 0.020      91.46    0.150     60.79       26.004 0.86 1.00
           79    509       7.70 0.000     121.95    0.150     60.79     6928.515 0.86 1.00
           80    510      81.48 0.019     121.95    0.100     64.32       16.219 0.86 1.00
           80    511     336.67 0.937       9.15    0.100     64.32        0.029 0.86 1.00
           80    512    1500.46 0.914       9.15    0.100     52.86        0.041 0.86 1.00
           80    513     617.06 0.933       9.15    0.100     52.86        0.032 0.86 1.00
           80    514     165.23 0.023      91.46    0.100     52.86       10.061 0.86 1.00
           81    515    1024.38 0.892       9.15    0.100     52.86        0.046 0.86 1.00
           81    516     294.45 0.859       9.15    0.100     52.86        0.034 0.86 1.00
           81    517      75.35 0.380       9.15    0.100     52.86        0.064 0.86 1.00
           81    518     348.21 0.887       9.15    0.100     52.86        0.034 0.86 1.00
           81    519      30.61 0.023      91.46    0.150     60.79       22.604 0.86 1.00
           81    520     106.42 0.834       9.15    0.150     60.79        0.066 0.86 1.00
           81    521      29.68 0.378       9.15    0.150     60.79        0.139 0.86 1.00
           81    522      68.36 0.689       9.15    0.150     60.79        0.078 0.86 1.00
           81    523      19.98 0.038      91.46    0.150     60.79       13.681 0.86 1.00
           81    524      34.48 0.950       9.15    0.150     60.79        0.056 0.86 1.00
           81    525      11.29 0.020      91.46    0.150     60.79       25.987 0.86 1.00
           82    526       9.26 0.372       9.15    0.140     67.84        0.134 0.86 1.00
           82    527      14.75 0.215      15.24    0.140     67.84        0.378 0.86 1.00
           82    528      27.55 0.058      60.98    0.140     67.84        5.321 0.86 1.00
           82    529      13.94 0.378       9.15    0.100     52.86        0.074 0.86 1.00
           82    530       4.61 0.491       9.15    0.100     52.86        0.052 0.86 1.00
           82    531       6.89 0.230      15.24    0.100     52.86        0.177 0.86 1.00
           83    532     156.95 0.366       9.15    0.100     52.86        0.063 0.86 1.00
           83    533     195.39 0.068      60.98    0.100     52.86        2.265 0.86 1.00
           83    534     302.28 0.227      15.24    0.100     52.86        0.170 0.86 1.00
           83    535     452.46 0.228      15.24    0.100     35.00        0.169 0.86 1.00
           83    536     291.84 0.363       9.15    0.100     35.00        0.064 0.86 1.00
           83    537     197.99 0.090      60.98    0.100     35.00        1.711 0.86 1.00
           83    538    1972.74 0.829       9.15    0.100     52.86        0.029 0.86 1.00
           83    539     903.45 0.730       9.15    0.100     52.86        0.032 0.86 1.00
           83    540     357.87 0.379       9.15    0.100     52.86        0.061 0.86 1.00
           83    541     408.31 0.873       9.15    0.100     52.86        0.027 0.86 1.00
           84    542    4574.81 0.807       9.15    0.100     52.86        0.033 0.86 1.00
           84    543    2140.95 0.782       9.15    0.100     52.86        0.032 0.86 1.00
           84    544    1665.88 0.868       9.15    0.100     52.86        0.028 0.86 1.00
           85    545     114.29 0.370       9.15    0.100     52.86        0.063 0.86 1.00
           85    546      88.61 0.600       9.15    0.100     52.86        0.039 0.86 1.00
           85    547     124.36 0.230      15.24    0.100     52.86        0.168 0.86 1.00
           85    548      75.85 0.070      60.98    0.100     52.86        2.200 0.86 1.00
           85    549      11.63 0.083      60.98    0.100     35.00        1.855 0.86 1.00
           85    550      12.03 0.224      15.24    0.100     35.00        0.172 0.86 1.00
           85    551      13.71 0.378       9.15    0.100     35.00        0.061 0.86 1.00
           85    552      10.07 0.549       9.15    0.100     35.00        0.042 0.86 1.00
           85    553     279.50 0.382       9.15    0.100     52.86        0.061 0.86 1.00
           85    554    1304.39 0.757       9.15    0.100     52.86        0.032 0.86 1.00
           86    555      83.96 0.077      60.98    0.140     59.03        3.928 0.86 1.00
           86    556      32.57 0.202      15.24    0.140     59.03        0.375 0.86 1.00
           86    557      65.57 0.081      60.98    0.100     35.00        1.906 0.86 1.00
           86    558      39.80 0.365       9.15    0.100     35.00        0.064 0.86 1.00
           86    559      80.69 0.221      15.24    0.100     35.00        0.177 0.86 1.00
           86    560       2.84 0.199      18.29    0.140     67.84        0.455 0.86 1.00
           86    561       7.99 0.070      60.98    0.140     67.84        4.312 0.86 1.00
           86    562      32.67 0.212      15.24    0.140     59.03        0.358 0.86 1.00
           86    563      51.06 0.076      60.98    0.140     59.03        3.976 0.86 1.00
           86    564      47.92 0.080      60.98    0.100     35.00        1.929 0.86 1.00
           86    565      62.03 0.223      15.24    0.100     35.00        0.175 0.86 1.00
           86    566      30.66 0.361       9.15    0.100     35.00        0.065 0.86 1.00
           87    567      18.33 0.057      60.98    0.140     67.84        5.450 0.86 1.00
           87    568      17.32 0.078      60.98    0.140     59.03        3.998 0.86 1.00
           87    569       9.75 0.209      15.24    0.140     59.03        0.397 0.86 1.00
           87    570       2.22 0.186      18.29    0.100     52.86        0.256 0.86 1.00
           87    571       9.50 0.061      60.98    0.100     52.86        2.587 0.86 1.00
           87    572       7.50 0.366       9.15    0.100     35.00        0.078 0.86 1.00
           87    573      15.39 0.088      60.98    0.100     35.00        1.832 0.86 1.00
           87    574      17.61 0.220      15.24    0.100     35.00        0.219 0.86 1.00
           88    575     781.66 0.075      60.98    0.140     59.03        4.031 0.86 1.00
           88    576     540.98 0.214      15.24    0.140     59.03        0.355 0.86 1.00
           88    577    1386.69 0.225      15.24    0.100     35.00        0.175 0.86 1.00
           88    578     765.82 0.085      60.98    0.100     35.00        1.817 0.86 1.00
           88    579     647.40 0.358       9.15    0.100     35.00        0.066 0.86 1.00

         HRU CN Input Summary Table:
          Sub   HRU   Area(ha)  LULC      Soil    CN1    CN2    CN3  Wilting Point (mm H2O)  Field Capacity (mm H2O)  Saturation (mm H2O)
            1      1     168.58  AGR3  11604      25.2   45.0   65.2                   121.4                    148.0                333.3
            1      2     751.54  AGR3  11808      21.9   41.8   61.8                   277.0                    125.0                235.8
            1      3     199.32  AGR3  11808      21.9   41.8   61.8                   277.0                    125.0                235.8
            1      4    1495.27  FRS3  11808      15.1   35.0   54.2                   277.0                    125.0                235.8
            1      5     722.42  FRS3  11808      15.1   35.0   54.2                   277.0                    125.0                235.8
            1      6    1297.18  FRS3  11808      15.1   35.0   54.2                   277.0                    125.0                235.8
            1      7     431.71  FRS5  11368      15.1   35.0   54.2                   271.0                    102.0                230.1
            1      8     206.71  FRS5  11368      15.1   35.0   54.2                   271.0                    102.0                230.1
            1      9     154.97  FRS5  11368      15.1   35.0   54.2                   271.0                    102.0                230.1
            2     10     950.18  FRS1  11808      15.1   35.0   54.2                   277.0                    125.0                235.8
            2     11     985.21  FRS1  11808      15.1   35.0   54.2                   277.0                    125.0                235.8
            2     12    1716.20  FRS1  11808      15.1   35.0   54.2                   277.0                    125.0                235.8
            2     13    2605.54  AGR3  11808      21.9   41.8   61.8                   277.0                    125.0                235.8
            2     14     866.21  AGR3  11808      21.9   41.8   61.8                   277.0                    125.0                235.8
            2     15    1653.13  FRS3  11368      15.1   35.0   54.2                   271.0                    102.0                230.1
            2     16     726.98  FRS3  11368      15.1   35.0   54.2                   271.0                    102.0                230.1
            2     17     514.24  FRS3  11368      15.1   35.0   54.2                   271.0                    102.0                230.1
            2     18    1793.68  FRS3  11808      15.1   35.0   54.2                   277.0                    125.0                235.8
            2     19    2892.46  FRS3  11808      15.1   35.0   54.2                   277.0                    125.0                235.8
            2     20    1811.70  FRS3  11808      15.1   35.0   54.2                   277.0                    125.0                235.8
            2     21    1288.59  FRS3  11808      15.1   35.0   54.2                   277.0                    125.0                235.8
            3     22       9.14  AGR3  11368      21.9   41.8   61.8                   271.0                    102.0                230.1
            3     23      14.00  AGR3  11368      21.9   41.8   61.8                   271.0                    102.0                230.1
            3     24      18.44  AGR3  11368      21.9   41.8   61.8                   271.0                    102.0                230.1
            3     25       9.68  AGR3  11368      21.9   41.8   61.8                   271.0                    102.0                230.1
            3     26      95.38  AGR3  11604      25.2   45.0   65.2                   121.4                    148.0                333.3
            3     27     302.23  AGR3  11808      21.9   41.8   61.8                   277.0                    125.0                235.8
            3     28     427.50  FRS3  11368      15.1   35.0   54.2                   271.0                    102.0                230.1
            3     29     145.62  FRS3  11368      15.1   35.0   54.2                   271.0                    102.0                230.1
            3     30     198.53  FRS3  11368      15.1   35.0   54.2                   271.0                    102.0                230.1
            3     31     899.93  FRS3  11808      15.1   35.0   54.2                   277.0                    125.0                235.8
            3     32     637.88  FRS3  11808      15.1   35.0   54.2                   277.0                    125.0                235.8
            3     33     423.90  FRS3  11808      15.1   35.0   54.2                   277.0                    125.0                235.8
            3     34     792.29  FRS5  11368      15.1   35.0   54.2                   271.0                    102.0                230.1
            4     35     196.97  FRS1  11808      15.1   35.0   54.2                   277.0                    125.0                235.8
            4     36     112.44  FRS1  11808      15.1   35.0   54.2                   277.0                    125.0                235.8
            4     37      57.66  FRS1  11808      15.1   35.0   54.2                   277.0                    125.0                235.8
            4     38      29.55  FRS1  11843      15.1   35.0   54.2                   242.0                    135.0                252.4
            4     39     112.46  FRS1  11843      15.1   35.0   54.2                   242.0                    135.0                252.4
            4     40     279.48  FRS3  11368      15.1   35.0   54.2                   271.0                    102.0                230.1
            4     41     629.57  FRS3  11368      15.1   35.0   54.2                   271.0                    102.0                230.1
            4     42     669.63  FRS3  11808      15.1   35.0   54.2                   277.0                    125.0                235.8
            4     43    1042.59  FRS3  11808      15.1   35.0   54.2                   277.0                    125.0                235.8
            4     44     787.83  FRS5  11368      15.1   35.0   54.2                   271.0                    102.0                230.1
            5     45    1263.32  FRST  11368      33.1   52.9   72.6                   224.2                    111.0                210.2
            5     46    7394.58  FRS5  11368      33.1   52.9   72.6                   224.2                    111.0                210.2
            6     47    7301.51  FRS5  11368      33.1   52.9   72.6                   224.2                    111.0                210.2
            6     48    2726.01  FRS5  11926      33.1   52.9   72.6                   224.2                    111.0                210.2
            7     49     377.31  FRST  11368      33.1   52.9   72.6                   224.2                    111.0                210.2
            7     50      53.93  FRST  11926      33.1   52.9   72.6                   224.2                    111.0                210.2
            7     51     356.04  FRS5  11368      33.1   52.9   72.6                   224.2                    111.0                210.2
            7     52    1328.79  FRS5  11368      33.1   52.9   72.6                   224.2                    111.0                210.2
            7     53     392.11  FRS5  11926      33.1   52.9   72.6                   224.2                    111.0                210.2
            8     54    5699.14  FRS5  11368      33.1   52.9   72.6                   224.2                    111.0                210.2
            8     55    2720.16  FRS5  11926      33.1   52.9   72.6                   224.2                    111.0                210.2
            9     56     621.89  FRST  11368      33.1   52.9   72.6                   224.2                    111.0                210.2
            9     57     206.43  FRST  11926      33.1   52.9   72.6                   224.2                    111.0                210.2
            9     58    3531.23  FRS5  11368      33.1   52.9   72.6                   224.2                    111.0                210.2
            9     59     990.73  FRS5  11926      33.1   52.9   72.6                   224.2                    111.0                210.2
           10     60      27.70  FRS1  11403      33.1   52.9   72.6                    95.9                    117.0                272.8
           10     61      36.03  FRS1  11403      33.1   52.9   72.6                    95.9                    117.0                272.8
           10     62      19.08  FRS1  11403      33.1   52.9   72.6                    95.9                    117.0                272.8
           10     63      18.87  FRS1  11403      33.1   52.9   72.6                    95.9                    117.0                272.8
           10     64     103.75  FRS1  11786      15.1   35.0   54.2                   182.3                    108.0                202.9
           10     65     178.95  FRS1  11786      15.1   35.0   54.2                   182.3                    108.0                202.9
           10     66     116.18  FRS1  11786      15.1   35.0   54.2                   182.3                    108.0                202.9
           10     67      43.31  FRS3  11403      33.1   52.9   72.6                    95.9                    117.0                272.8
           10     68      51.79  FRS3  11403      33.1   52.9   72.6                    95.9                    117.0                272.8
           10     69      51.23  FRS3  11403      33.1   52.9   72.6                    95.9                    117.0                272.8
           10     70      79.43  FRS3  11403      33.1   52.9   72.6                    95.9                    117.0                272.8
           10     71      63.00  FRS3  11786      15.1   35.0   54.2                   182.3                    108.0                202.9
           10     72      86.71  FRS3  11786      15.1   35.0   54.2                   182.3                    108.0                202.9
           10     73      46.23  FRS3  11786      15.1   35.0   54.2                   182.3                    108.0                202.9
           10     74      83.40  FRS3  11786      15.1   35.0   54.2                   182.3                    108.0                202.9
           10     75     904.42  FRS5  11403      33.1   52.9   72.6                    95.9                    117.0                272.8
           10     76     188.13  FRS5  11786      15.1   35.0   54.2                   182.3                    108.0                202.9
           11     77     240.31  AGR1  11786      39.5   59.0   77.8                   182.3                    108.0                202.9
           11     78     367.06  AGR1  11786      39.5   59.0   77.8                   182.3                    108.0                202.9
           11     79     325.33  FRS1  11786      15.1   35.0   54.2                   182.3                    108.0                202.9
           11     80     182.46  FRS1  11786      15.1   35.0   54.2                   182.3                    108.0                202.9
           11     81     176.88  FRS1  11786      15.1   35.0   54.2                   182.3                    108.0                202.9
           11     82     444.93  FRS5  11368      33.1   52.9   72.6                   224.2                    111.0                210.2
           11     83     206.73  FRS5  11403      33.1   52.9   72.6                    95.9                    117.0                272.8
           11     84     765.53  FRS5  11403      33.1   52.9   72.6                    95.9                    117.0                272.8
           12     85     383.91  AGR1  11786      39.5   59.0   77.8                   182.3                    108.0                202.9
           12     86     274.17  AGR1  11786      39.5   59.0   77.8                   182.3                    108.0                202.9
           12     87     645.16  FRS1  11786      15.1   35.0   54.2                   182.3                    108.0                202.9
           12     88     359.68  FRS1  11786      15.1   35.0   54.2                   182.3                    108.0                202.9
           12     89     305.90  FRS1  11786      15.1   35.0   54.2                   182.3                    108.0                202.9
           12     90    1387.32  FRS5  11368      33.1   52.9   72.6                   224.2                    111.0                210.2
           12     91     317.93  FRS5  11403      33.1   52.9   72.6                    95.9                    117.0                272.8
           13     92    1549.32  AGR2  11368      48.8   67.8   84.2                   224.2                    111.0                210.2
           13     93     408.47  AGR2  11808      48.8   67.8   84.2                   220.5                    137.0                227.8
           13     94     281.56  AGR2  11926      48.8   67.8   84.2                   224.2                    111.0                210.2
           13     95    1784.40  FRS4  11368      33.1   52.9   72.6                   224.2                    111.0                210.2
           13     96     970.26  FRS4  11926      33.1   52.9   72.6                   224.2                    111.0                210.2
           13     97    3501.59  FRS5  11368      33.1   52.9   72.6                   224.2                    111.0                210.2
           13     98    3530.97  FRS5  11926      33.1   52.9   72.6                   224.2                    111.0                210.2
           14     99      39.33  FRST  11368      33.1   52.9   72.6                   224.2                    111.0                210.2
           14    100      36.29  FRST  11403      33.1   52.9   72.6                    95.9                    117.0                272.8
           14    101      31.64  FRS5  11368      33.1   52.9   72.6                   224.2                    111.0                210.2
           14    102     137.15  FRS5  11368      33.1   52.9   72.6                   224.2                    111.0                210.2
           14    103      66.60  FRS5  11403      33.1   52.9   72.6                    95.9                    117.0                272.8
           14    104     222.81  FRS5  11403      33.1   52.9   72.6                    95.9                    117.0                272.8
           15    105     187.07  FRST  11368      33.1   52.9   72.6                   224.2                    111.0                210.2
           15    106     146.15  FRST  11926      33.1   52.9   72.6                   224.2                    111.0                210.2
           15    107     826.23  FRS5  11368      33.1   52.9   72.6                   224.2                    111.0                210.2
           15    108     200.10  FRS5  11368      33.1   52.9   72.6                   224.2                    111.0                210.2
           15    109     475.51  FRS5  11926      33.1   52.9   72.6                   224.2                    111.0                210.2
           15    110     141.00  FRS5  11926      33.1   52.9   72.6                   224.2                    111.0                210.2
           15    111     303.23  PAS5  11368      41.3   60.8   79.1                   224.2                    111.0                210.2
           15    112     162.03  PAS5  11926      41.3   60.8   79.1                   224.2                    111.0                210.2
           16    113    2096.96  FRS5  11368      33.1   52.9   72.6                   224.2                    111.0                210.2
           16    114    8001.21  FRS5  11368      33.1   52.9   72.6                   224.2                    111.0                210.2
           16    115     352.77  FRS5  11403      33.1   52.9   72.6                    95.9                    117.0                272.8
           16    116     997.09  FRS5  11403      33.1   52.9   72.6                    95.9                    117.0                272.8
           16    117     313.12  FRS5  11403      33.1   52.9   72.6                    95.9                    117.0                272.8
           17    118     305.94  AGR2  11368      48.8   67.8   84.2                   224.2                    111.0                210.2
           17    119     122.57  AGR5  11368      48.8   67.8   84.2                   224.2                    111.0                210.2
           17    120     368.55  AGR5  11368      48.8   67.8   84.2                   224.2                    111.0                210.2
           17    121     301.06  FRS5  11368      33.1   52.9   72.6                   224.2                    111.0                210.2
           17    122     269.36  FRS5  11368      33.1   52.9   72.6                   224.2                    111.0                210.2
           17    123     671.78  FRS5  11368      33.1   52.9   72.6                   224.2                    111.0                210.2
           17    124     322.64  FRS5  11368      33.1   52.9   72.6                   224.2                    111.0                210.2
           18    125     140.01  AGR5  11368      48.8   67.8   84.2                   224.2                    111.0                210.2
           18    126     502.49  AGR5  11368      48.8   67.8   84.2                   224.2                    111.0                210.2
           18    127      82.04  AGR5  11808      48.8   67.8   84.2                   220.5                    137.0                227.8
           18    128      29.98  AGR5  11808      48.8   67.8   84.2                   220.5                    137.0                227.8
           18    129     168.32  AGR5  11926      48.8   67.8   84.2                   224.2                    111.0                210.2
           18    130      57.40  AGR5  11926      48.8   67.8   84.2                   224.2                    111.0                210.2
           18    131    3007.44  FRS5  11368      33.1   52.9   72.6                   224.2                    111.0                210.2
           18    132     931.21  FRS5  11926      33.1   52.9   72.6                   224.2                    111.0                210.2
           18    133     249.31  FRS5  11926      33.1   52.9   72.6                   224.2                    111.0                210.2
           19    134    2752.81  FRS5  11368      33.1   52.9   72.6                   224.2                    111.0                210.2
           20    135      74.42  AGR5  11368      48.8   67.8   84.2                   224.2                    111.0                210.2
           20    136      19.41  AGR5  11368      48.8   67.8   84.2                   224.2                    111.0                210.2
           20    137       5.27  AGR5  11403      48.8   67.8   84.2                    95.9                    117.0                272.8
           20    138       9.29  AGR5  11403      48.8   67.8   84.2                    95.9                    117.0                272.8
           20    139      23.67  AGR5  11926      48.8   67.8   84.2                   224.2                    111.0                210.2
           20    140       7.41  AGR5  11926      48.8   67.8   84.2                   224.2                    111.0                210.2
           20    141     596.36  FRS5  11368      33.1   52.9   72.6                   224.2                    111.0                210.2
           20    142     113.50  FRS5  11403      33.1   52.9   72.6                    95.9                    117.0                272.8
           20    143      42.34  FRS5  11403      33.1   52.9   72.6                    95.9                    117.0                272.8
           20    144      34.23  FRS5  11403      33.1   52.9   72.6                    95.9                    117.0                272.8
[...]
           78    497     123.06       316.004         0.241   1404.743   0.141      750.000  0.050    0.000     0.000
           78    498      63.15       316.004         0.241   1404.743   0.141      750.000  0.050    0.000     0.000
           78    499     795.08       316.004         0.241   1404.743   0.141      750.000  0.050    0.000     0.000
           78    500     978.93       316.004         0.241   1404.743   0.141      750.000  0.050    0.000     0.000
           78    501    3402.88       316.004         0.241   1404.743   0.141      750.000  0.050    0.000     0.000
           79    502      17.93       316.004         0.241   1404.743   0.141      750.000  0.050    0.000     0.000
           79    503      17.23       316.004         0.241   1404.743   0.141      750.000  0.050    0.000     0.000
           79    504     110.90       316.004         0.241   1404.743   0.141      750.000  0.050    0.000     0.000
           79    505      14.52       316.004         0.241   1404.743   0.141      750.000  0.050    0.000     0.000
           79    506      29.66       316.004         0.241   1404.743   0.141      750.000  0.050    0.000     0.000
           79    507      14.85       316.004         0.241   1404.743   0.141      750.000  0.050    0.000     0.000
           79    508      11.80       316.004         0.241   1404.743   0.141      750.000  0.050    0.000     0.000
           79    509       7.70       316.004         0.241   1404.743   0.141      750.000  0.050    0.000     0.000
           80    510      81.48       316.004         0.241   1404.743   0.141      750.000  0.050    0.000     0.000
           80    511     336.67       316.004         0.241   1404.743   0.141      750.000  0.050    0.000     0.000
           80    512    1500.46       316.004         0.241   1404.743   0.141      750.000  0.050    0.000     0.000
           80    513     617.06       316.004         0.241   1404.743   0.141      750.000  0.050    0.000     0.000
           80    514     165.23       316.004         0.241   1404.743   0.141      750.000  0.050    0.000     0.000
           81    515    1024.38       316.004         0.241   1404.743   0.141      750.000  0.050    0.000     0.000
           81    516     294.45       316.004         0.241   1404.743   0.141      750.000  0.050    0.000     0.000
           81    517      75.35       316.004         0.241   1404.743   0.141      750.000  0.050    0.000     0.000
           81    518     348.21       316.004         0.241   1404.743   0.141      750.000  0.050    0.000     0.000
           81    519      30.61       316.004         0.241   1404.743   0.141      750.000  0.050    0.000     0.000
           81    520     106.42       316.004         0.241   1404.743   0.141      750.000  0.050    0.000     0.000
           81    521      29.68       316.004         0.241   1404.743   0.141      750.000  0.050    0.000     0.000
           81    522      68.36       316.004         0.241   1404.743   0.141      750.000  0.050    0.000     0.000
           81    523      19.98       316.004         0.241   1404.743   0.141      750.000  0.050    0.000     0.000
           81    524      34.48       316.004         0.241   1404.743   0.141      750.000  0.050    0.000     0.000
           81    525      11.29       316.004         0.241   1404.743   0.141      750.000  0.050    0.000     0.000
           82    526       9.26       316.004         0.241   1404.743   0.141      750.000  0.050    0.000     0.000
           82    527      14.75       316.004         0.241   1404.743   0.141      750.000  0.050    0.000     0.000
           82    528      27.55       316.004         0.241   1404.743   0.141      750.000  0.050    0.000     0.000
           82    529      13.94       316.004         0.241   1404.743   0.141      750.000  0.050    0.000     0.000
           82    530       4.61       316.004         0.241   1404.743   0.141      750.000  0.050    0.000     0.000
           82    531       6.89       316.004         0.241   1404.743   0.141      750.000  0.050    0.000     0.000
           83    532     156.95       316.004         0.241   1404.743   0.141      750.000  0.050    0.000     0.000
           83    533     195.39       316.004         0.241   1404.743   0.141      750.000  0.050    0.000     0.000
           83    534     302.28       316.004         0.241   1404.743   0.141      750.000  0.050    0.000     0.000
           83    535     452.46       316.004         0.241   1404.743   0.141      750.000  0.050    0.000     0.000
           83    536     291.84       316.004         0.241   1404.743   0.141      750.000  0.050    0.000     0.000
           83    537     197.99       316.004         0.241   1404.743   0.141      750.000  0.050    0.000     0.000
           83    538    1972.74       316.004         0.241   1404.743   0.141      750.000  0.050    0.000     0.000
           83    539     903.45       316.004         0.241   1404.743   0.141      750.000  0.050    0.000     0.000
           83    540     357.87       316.004         0.241   1404.743   0.141      750.000  0.050    0.000     0.000
           83    541     408.31       316.004         0.241   1404.743   0.141      750.000  0.050    0.000     0.000
           84    542    4574.81       316.004         0.241   1404.743   0.141      750.000  0.050    0.000     0.000
           84    543    2140.95       316.004         0.241   1404.743   0.141      750.000  0.050    0.000     0.000
           84    544    1665.88       316.004         0.241   1404.743   0.141      750.000  0.050    0.000     0.000
           85    545     114.29       316.004         0.241   1404.743   0.141      750.000  0.050    0.000     0.000
           85    546      88.61       316.004         0.241   1404.743   0.141      750.000  0.050    0.000     0.000
           85    547     124.36       316.004         0.241   1404.743   0.141      750.000  0.050    0.000     0.000
           85    548      75.85       316.004         0.241   1404.743   0.141      750.000  0.050    0.000     0.000
           85    549      11.63       316.004         0.241   1404.743   0.141      750.000  0.050    0.000     0.000
           85    550      12.03       316.004         0.241   1404.743   0.141      750.000  0.050    0.000     0.000
           85    551      13.71       316.004         0.241   1404.743   0.141      750.000  0.050    0.000     0.000
           85    552      10.07       316.004         0.241   1404.743   0.141      750.000  0.050    0.000     0.000
           85    553     279.50       316.004         0.241   1404.743   0.141      750.000  0.050    0.000     0.000
           85    554    1304.39       316.004         0.241   1404.743   0.141      750.000  0.050    0.000     0.000
           86    555      83.96       316.004         0.241   1404.743   0.141      750.000  0.050    0.000     0.000
           86    556      32.57       316.004         0.241   1404.743   0.141      750.000  0.050    0.000     0.000
           86    557      65.57       316.004         0.241   1404.743   0.141      750.000  0.050    0.000     0.000
           86    558      39.80       316.004         0.241   1404.743   0.141      750.000  0.050    0.000     0.000
           86    559      80.69       316.004         0.241   1404.743   0.141      750.000  0.050    0.000     0.000
           86    560       2.84       316.004         0.241   1404.743   0.141      750.000  0.050    0.000     0.000
           86    561       7.99       316.004         0.241   1404.743   0.141      750.000  0.050    0.000     0.000
           86    562      32.67       316.004         0.241   1404.743   0.141      750.000  0.050    0.000     0.000
           86    563      51.06       316.004         0.241   1404.743   0.141      750.000  0.050    0.000     0.000
           86    564      47.92       316.004         0.241   1404.743   0.141      750.000  0.050    0.000     0.000
           86    565      62.03       316.004         0.241   1404.743   0.141      750.000  0.050    0.000     0.000
           86    566      30.66       316.004         0.241   1404.743   0.141      750.000  0.050    0.000     0.000
           87    567      18.33       316.004         0.241   1404.743   0.141      750.000  0.050    0.000     0.000
           87    568      17.32       316.004         0.241   1404.743   0.141      750.000  0.050    0.000     0.000
           87    569       9.75       316.004         0.241   1404.743   0.141      750.000  0.050    0.000     0.000
           87    570       2.22       316.004         0.241   1404.743   0.141      750.000  0.050    0.000     0.000
           87    571       9.50       316.004         0.241   1404.743   0.141      750.000  0.050    0.000     0.000
           87    572       7.50       316.004         0.241   1404.743   0.141      750.000  0.050    0.000     0.000
           87    573      15.39       316.004         0.241   1404.743   0.141      750.000  0.050    0.000     0.000
           87    574      17.61       316.004         0.241   1404.743   0.141      750.000  0.050    0.000     0.000
           88    575     781.66       316.004         0.241   1404.743   0.141      750.000  0.050    0.000     0.000
           88    576     540.98       316.004         0.241   1404.743   0.141      750.000  0.050    0.000     0.000
           88    577    1386.69       316.004         0.241   1404.743   0.141      750.000  0.050    0.000     0.000
           88    578     765.82       316.004         0.241   1404.743   0.141      750.000  0.050    0.000     0.000
           88    579     647.40       316.004         0.241   1404.743   0.141      750.000  0.050    0.000     0.000

         Tributary/Main Channel Characteristics
              |--------------Tributary--------------------|---------------------Main---------------------------|
          Sub  Length(km) Slope Width(m) Cond(mm/hr)     N Length(km) Slope Width(m) Depth(m) Cond(mm/hr)     N
            1       12.10 0.001    14.17      0.0000 0.014      11.61 0.001    14.17     0.64     85.4873 0.206
            2       11.61 0.001    28.90      0.0000 0.014      38.21 0.001    28.90     1.03     85.4873 0.206
            3        4.77 0.001    11.75      0.0000 0.014      10.19 0.001    11.75     0.57     85.4873 0.206
            4       38.21 0.001    11.65      0.0000 0.014       8.81 0.001    11.65     0.56     85.4873 0.206
            5       10.19 0.001    18.75      0.0000 0.014       7.55 0.037    18.75     0.77    112.2273 0.022
            6        8.81 0.001    20.52      0.0000 0.014      12.57 0.011    20.52     0.82    112.2273 0.022
            7        7.04 0.022     8.92      0.0000 0.014       3.24 0.058     8.92     0.47    112.2273 0.022
            8       17.04 0.009    18.44      0.0000 0.014       8.14 0.009    18.44     0.77    112.2273 0.022
            9       10.20 0.008    14.05      0.0000 0.014       2.41 0.087    14.05     0.64    112.2273 0.022
           10       14.93 0.003     8.01      0.0000 0.014       0.62 0.010     8.01     0.44    112.2273 0.022
           11        2.87 0.001     9.35      0.0000 0.014       9.00 0.000   163.79     3.28    112.2273 0.022
           12        9.13 0.008    11.21      0.0000 0.014       5.81 0.003    11.21     0.55    112.2273 0.022
           13        2.90 0.001    22.85      0.0000 0.014       3.96 0.052    22.85     0.88    112.2273 0.022
           14        5.46 0.011     3.52      0.0000 0.014       0.48 0.213     3.52     0.25    112.2273 0.022
           15        9.83 0.001     8.77      0.0000 0.014       2.39 0.044     8.77     0.47    112.2273 0.022
           16        1.96 0.001    22.53      0.0000 0.014       7.43 0.031    25.23     0.94    112.2273 0.022
           17        1.04 0.001     8.61      0.0000 0.014       1.25 0.001     8.61     0.46    112.2273 0.022
           18        4.41 0.002    13.75      0.0000 0.014       3.28 0.030    13.75     0.63    112.2273 0.022
           19        2.66 0.001     9.43      0.0000 0.014       0.94 0.060     9.43     0.49    112.2273 0.022
           20       11.15 0.008     5.54      0.0000 0.014       0.42 0.233     5.54     0.34    112.2273 0.022
           21        2.74 0.003    12.88      0.0000 0.014       1.16 0.049    12.88     0.60    112.2273 0.022
           22        2.04 0.008     8.80      0.0000 0.014       1.06 0.099     8.80     0.47    112.2273 0.022
           23        4.35 0.026    11.58      0.0000 0.014       3.91 0.005    11.58     0.56     85.4873 0.206
           24       11.75 0.007    11.58      0.0000 0.014      12.10 0.001    11.58     0.56     85.4873 0.206
           25       27.28 0.005     4.25      0.0000 0.014       4.77 0.001    20.49     0.82     85.4873 0.206
           26       12.11 0.001     6.70      0.0000 0.014       7.04 0.022    39.04     1.26     85.4873 0.206
           27       10.69 0.016    15.57      0.0000 0.014      17.04 0.009    25.28     0.94     85.4873 0.206
           28       10.57 0.002    10.51      0.0000 0.014      10.20 0.008    10.51     0.53     85.4873 0.206
           29        1.60 0.008    10.77      0.0000 0.014      14.93 0.003    51.79     1.52     85.4873 0.206
           30        9.64 0.000     2.74      0.0000 0.014       2.87 0.001    54.17     1.57     85.4873 0.206
           31       11.58 0.006    10.81      0.0000 0.014       9.13 0.008    10.81     0.54     85.4873 0.206
           32        0.66 0.001     1.93      0.0000 0.014       2.90 0.001    56.48     1.62     85.4873 0.206
           33        0.25 0.001    10.77      0.0000 0.014       5.46 0.011    10.77     0.54     85.4873 0.206
           34        4.58 0.001     8.64      0.0000 0.014       9.83 0.001    60.03     1.68     85.4873 0.206
           35        8.81 0.001     8.84      0.0000 0.014       1.96 0.001     8.84     0.47    112.2273 0.022
           36        4.68 0.017     9.01      0.0000 0.014       1.04 0.001     9.01     0.47    112.2273 0.022
           37       10.25 0.025     5.69      0.0000 0.014       4.41 0.002    71.79     1.89     85.4873 0.206
           38       20.66 0.016     2.41      0.0000 0.014       2.66 0.001    13.98     0.64    112.2273 0.022
           39        2.86 0.001    13.35      0.0000 0.014      11.15 0.008    13.35     0.62    112.2273 0.022
           40       38.42 0.001     4.32      0.0000 0.014       2.74 0.003    72.19     1.90    112.2273 0.022
           41        7.99 0.001     1.87      0.0000 0.014       2.04 0.008    74.86     1.95    112.2273 0.022
           42        5.69 0.001     3.02      0.0000 0.014       4.35 0.026    21.76     0.86    112.2273 0.022
           43        0.54 0.001    11.40      0.0000 0.014      11.75 0.007    30.75     1.08     85.4873 0.206
           44       16.23 0.001    19.56      0.0000 0.014      27.28 0.005    19.56     0.80     85.4873 0.206
           45        7.28 0.001    14.08      0.0000 0.014      12.11 0.001    14.08     0.64    112.2273 0.022
           46        4.57 0.018     9.53      0.0000 0.014      10.69 0.016    16.05     0.70     85.4873 0.206
           47       19.74 0.001     7.43      0.0000 0.014      10.57 0.002    81.36     2.06    112.2273 0.022
           48        4.84 0.007     8.14      0.0000 0.014       1.60 0.008     8.14     0.44    112.2273 0.022
           49        4.87 0.001     8.64      0.0000 0.014       9.64 0.000    83.55     2.10    112.2273 0.022
           50       18.85 0.006    15.09      0.0000 0.014      11.58 0.006    31.20     1.09    112.2273 0.022
           51        2.85 0.004     9.82      0.0000 0.014       0.66 0.001     9.82     0.50    112.2273 0.022
           52        8.29 0.019     0.50      0.0000 0.014       0.25 0.001    35.78     1.19    112.2273 0.022
           53        7.55 0.037    13.75      0.0000 0.014       4.57 0.001    13.75     0.63    112.2273 0.022
           54        4.29 0.000     9.02      0.0000 0.014       8.81 0.001    89.83     2.20    112.2273 0.022
           55        0.84 0.018     7.07      0.0000 0.014       4.68 0.017    39.57     1.27    112.2273 0.022
           56       21.73 0.001    17.57      0.0000 0.014      10.25 0.025    17.57     0.74    112.2273 0.022
           57        9.76 0.001    21.47      0.0000 0.014      20.66 0.016    21.47     0.85    112.2273 0.022
           58       12.57 0.011     3.41      0.0000 0.014       2.86 0.001   115.70     2.61    112.2273 0.022
           59        1.68 0.001    26.58      0.0000 0.014      38.42 0.001    28.95     1.03    112.2273 0.022
           60        3.16 0.014     7.12      0.0000 0.014       7.99 0.001   113.99     2.58    112.2273 0.022
           61        9.34 0.014    11.64      0.0000 0.014       5.69 0.001    11.64     0.56    112.2273 0.022
           62        1.56 0.001     0.50      0.0000 0.014       0.54 0.001    50.82     1.50    112.2273 0.022
           63        3.24 0.058    15.50      0.0000 0.014      16.23 0.001    92.68     2.25    112.2273 0.022
           64        6.71 0.001     9.08      0.0000 0.014       7.28 0.001   110.24     2.52    112.2273 0.022
           65        6.55 0.005    11.65      0.0000 0.014       4.57 0.018    11.65     0.56    112.2273 0.022
           66        8.14 0.009    14.21      0.0000 0.014      19.74 0.001   128.92     2.80    112.2273 0.022
           67        0.61 0.002     3.42      0.0000 0.014       4.84 0.007    53.72     1.56    112.2273 0.022
           68        2.41 0.087     6.12      0.0000 0.014       4.87 0.001    46.30     1.41    112.2273 0.022
           69       10.53 0.001    12.21      0.0000 0.014      18.85 0.006    29.55     1.05    112.2273 0.022
           70       13.38 0.006    10.97      0.0000 0.014       2.85 0.004    10.97     0.54    112.2273 0.022
           71        9.00 0.000     9.59      0.0000 0.014       8.29 0.019    14.42     0.65    112.2273 0.022
           72        0.06 0.094     5.87      0.0000 0.014       4.29 0.000    26.79     0.98    112.2273 0.022
           73        0.62 0.010     8.82      0.0000 0.014       0.83 0.018    16.64     0.71    112.2273 0.022
           74        4.05 0.001    21.11      0.0000 0.014      21.73 0.001    37.71     1.23    112.2273 0.022
           75        2.28 0.009     8.68      0.0000 0.014       9.77 0.001   146.94     3.06    112.2273 0.022
           76        5.81 0.003     2.58      0.0000 0.014       1.68 0.001   150.34     3.10    112.2273 0.022
           77       15.00 0.000     9.09      0.0000 0.014       3.16 0.014     9.09     0.48    112.2273 0.022
           78        7.43 0.031    15.36      0.0000 0.014       9.34 0.014    16.99     0.73    112.2273 0.022
           79        2.39 0.044     2.10      0.0000 0.014       1.56 0.001   151.25     3.11    112.2273 0.022
           80        3.28 0.030     9.32      0.0000 0.014       6.71 0.001   152.92     3.14    112.2273 0.022
           81        1.25 0.001     7.88      0.0000 0.014       6.55 0.005   153.58     3.15    112.2273 0.022
           82        3.96 0.052     1.10      0.0000 0.014       0.61 0.002   156.28     3.18    112.2273 0.022
           83        0.48 0.213    13.87      0.0000 0.014      10.53 0.001   160.37     3.24    112.2273 0.022
           84        1.16 0.049    18.39      0.0000 0.014      13.38 0.006    18.39     0.76    112.2273 0.022
           85        0.42 0.233     7.86      0.0000 0.014       0.06 0.094     9.04     0.48    112.2273 0.022
           86        0.94 0.060     3.54      0.0000 0.014       4.05 0.001   165.08     3.30    112.2273 0.022
           87        3.91 0.005     1.27      0.0000 0.014       2.28 0.009    13.10     0.61    112.2273 0.022
           88        1.06 0.099    12.01      0.0000 0.014      15.00 0.000   167.77     3.34    112.2273 0.022
