1
    SWAT Dec 23 2016    VER 2016/Rev 664                                                                 0/ 0/   0      0: 0: 0

    General Input/Output section (file.cio):                                        
    2024/5/11 0:00:00 ARCGIS-SWAT interface AV                                      
                                                                                    
         Number of years in run:   14
         Area of watershed:     3338.408 km2
1
    SWAT Dec 23 2016    VER 2016/Rev 664                                            

    General Input/Output section (file.cio):                                        
    2024/5/11 0:00:00 ARCGIS-SWAT interface AV                                      
                                                                                    
Annual Summary for Watershed in year    1 of simulation

UNIT                                    PERCO    TILE                           WATER     SED     NO3     NO3     NO3     NO3        N       P       P
TIME     PREC    SURQ    LATQ     GWQ    LATE       Q     SW       ET     PET   YIELD   YIELD    SURQ    LATQ    PERC    CROP  ORGANIC SOLUBLE ORGANIC TILENO3
         (mm)    (mm)    (mm)    (mm)    (mm)    (mm)    (mm)    (mm)    (mm)    (mm)   (t/ha)  ------------------(kg nutrient/ha)-------------------- (kg/ha)
